# CH4/O2/N2.
# Plasma-assisted ignition kinetic model incorporating rotationally excited species, vibrationally excited species, electronically excited species, radicals, ions and electrons.
# Xingqian Mao and Qi Chen. Effects of Vibrational Excitation on Nanosecond Discharge Enhanced Methane-Air Ignition, AIAA Journal, 2018.

 
ELEMENTS
O H C N E
END


SPECIES
H2      H       O       O2      OH      H2O     HO2     H2O2    
C       CH      CH2     CH2(S)  CH3     CH4     CO      CO2     
HCO     CH2O    CH2OH   CH3O    CH3OH   C2H2    C2H3    
C2H4    C2H5    C2H6    HCCO    N       NH      
NNH     NO      NO2     N2O     HNO     CN      
HCN     H2CN    HCNN    HNCO    NCO     N2      
C3H7    C3H8    CH2CHO  CH3CHO  CH3O2
#####plasma species
N2(v1) N2(v2) N2(v3) N2(v4) N2(v5) N2(v6) N2(v7) N2(v8)
O2(v1) O2(v2) O2(v3) O2(v4)
CH4(v24) CH4(v13)
N2(A) N2(B) N2(a') N2(C)
O2(a1) O2(b1) O2* O(1D) O(1S)
N2^+ O2^+ CH4^+ CH3^+ CH2^+ 
E

END


BOLSIG
N2 O2 CH4 

END


REACTIONS

$ double precision :: dTion, TionN, TionN2, TeffN, TeffN2! K
$ dTion  = 2.0d0/(3.0d0*1.3807d-16)*1.6605d-24*(1.0d-17*EN)**2
$ TionN2 = Tgas+dTion*28.0d0*4.1d19**2
$ TeffN2 = (TionN2+1.0d0*Tgas)/(1.0d0+1.0d0 )

$ double precision :: kVT10_N2N2, kVT10_N2O2, kVT10_N2CO2, kVT10_N2H2O, kVT10_N2H2, kVT10_N2OH, kVT10_N2H ! cm3.s-1
$ double precision :: kVT10_N2O, kVT10_N2CH4, kVT10_N2C2H2, kVT10_N2C2H4, kVT10_N2C2H6, kVT10_N2C3H8, kVT10_N2N ! cm3.s-1
$ kVT10_N2N2 = Tgas*exp(-22.86d0-328.9d0/Tgas**(1.0d0/3.0d0)+993.3d0/Tgas**(2.0d0/3.0d0))
$ kVT10_N2O2 = Tgas*exp(-22.86d0-328.9d0/Tgas**(1.0d0/3.0d0)+993.3d0/Tgas**(2.0d0/3.0d0))
$ kVT10_N2CO2 = exp(-19.414d0-134.73d0/Tgas**(1.0d0/3.0d0)+253.2d0/Tgas**(2.0d0/3.0d0)+251.7d0/Tgas) 
$ kVT10_N2H2O = Tgas*exp(-35.12d0-21.18d0/Tgas**(1.0d0/3.0d0))
$ kVT10_N2H2 = Tgas*exp(-24.89d0-167.24d0/Tgas**(1.0d0/3.0d0)+394.43d0/Tgas**(2.0d0/3.0d0))
$ kVT10_N2OH = Tgas*exp(-24.89d0-167.24d0/Tgas**(1.0d0/3.0d0)+394.43d0/Tgas**(2.0d0/3.0d0))
$ kVT10_N2H = 3.1d0*Tgas*exp(-24.89d0-167.24d0/Tgas**(1.0d0/3.0d0)+394.43d0/Tgas**(2.0d0/3.0d0)) 
$ kVT10_N2O = Tgas*exp(-34.03d0-33.11d0/Tgas**(1.0d0/3.0d0))
$ kVT10_N2CH4 = 3.2d-14*Tgas*exp(-41.45d0/Tgas**(1.0d0/3.0d0))
$ kVT10_N2C2H2 = 1.2d-15*Tgas*exp(-17.27d0/Tgas**(1.0d0/3.0d0))
$ kVT10_N2C2H4 = 6.0d-16*Tgas
$ kVT10_N2C2H6 = 6.0d-16*Tgas
$ kVT10_N2C3H8 = 6.0d-16*Tgas
$ kVT10_N2N  = 4.0d-16*(Tgas/300.0d0)**0.5


$ double precision :: kVT10_O2N2, kVT10_O2O2, kVT10_O2CO2, kVT10_O2H2O, kVT10_O2H2, kVT10_O2CH4, kVT10_O2C2H2 ! cm3.s-1
$ double precision :: kVT10_O2C2H4, kVT10_O2OH, kVT10_O2H, kVT10_O2O, kVT10_O2C2H6, kVT10_O2C3H8 ! cm3.s-1
$ kVT10_O2N2 = exp(-28.02d0-132.0d0/Tgas**(1.0d0/3.0d0))
$ kVT10_O2O2 = exp(-18.32d0-157.0d0/Tgas**(1.0d0/3.0d0)) 
$ kVT10_O2CO2 = Tgas*exp(-27.34d0-146.5d0/Tgas**(1.0d0/3.0d0)) 
$ kVT10_O2H2O = 100*exp(-18.32d0-157.0d0/Tgas**(1.0d0/3.0d0)) 
$ kVT10_O2H2 = exp(-22.04d0-91.5d0/Tgas**(1.0d0/3.0d0))
$ kVT10_O2CH4 = Tgas*exp(-30.39d0-41.45d0/Tgas**(1.0d0/3.0d0))
$ kVT10_O2C2H2 = Tgas*exp(-33.61d0-17.27d0/Tgas**(1.0d0/3.0d0))
$ kVT10_O2C2H4 = 1.05d-15*Tgas
$ kVT10_O2OH = 100*exp(-18.32d0-157.0d0/Tgas**(1.0d0/3.0d0)) 
$ kVT10_O2H = 1.7*exp(-22.04d0-91.5d0/Tgas**(1.0d0/3.0d0))
$ kVT10_O2O = Tgas*exp(-28.87d0-111.0d0/Tgas**(1.0d0/3.0d0)) 
$ kVT10_O2C2H6 = 1.05d-15*Tgas
$ kVT10_O2C3H8 = 1.05d-15*Tgas

#-----------------------------------------------------------------------
#
#  electron impact
#
#-----------------------------------------------------------------------

# rotational excitation
# Phelps database, www.lxcat.net.
E + N2 => E + N2                          !  BOLSIG  N2 -> N2(rot)
E + O2 => E + O2                          !  BOLSIG  O2 -> O2(rot)

# vibrational excitation
# Phelps database, www.lxcat.net.
E + N2 => E + N2(v1)                      !  BOLSIG  N2 -> N2(v1res)
E + N2 => E + N2(v1)                      !  BOLSIG  N2 -> N2(v1)
E + N2 => E + N2(v2)                      !  BOLSIG  N2 -> N2(v2)
E + N2 => E + N2(v3)                      !  BOLSIG  N2 -> N2(v3)
E + N2 => E + N2(v4)                      !  BOLSIG  N2 -> N2(v4)
E + N2 => E + N2(v5)                      !  BOLSIG  N2 -> N2(v5)
E + N2 => E + N2(v6)                      !  BOLSIG  N2 -> N2(v6)
E + N2 => E + N2(v7)                      !  BOLSIG  N2 -> N2(v7)
E + N2 => E + N2(v8)                      !  BOLSIG  N2 -> N2(v8)
E + O2 => E + O2(v1)                      !  BOLSIG  O2 -> O2(v1res)
E + O2 => E + O2(v1)                      !  BOLSIG  O2 -> O2(v1)
E + O2 => E + O2(v2)                      !  BOLSIG  O2 -> O2(v2res)
E + O2 => E + O2(v2)                      !  BOLSIG  O2 -> O2(v2)
E + O2 => E + O2(v3)                      !  BOLSIG  O2 -> O2(v3)
E + O2 => E + O2(v4)                      !  BOLSIG  O2 -> O2(v4)
# IST-Lisbon database, www.lxcat.net.
E + CH4 => E + CH4(v24)                   !  BOLSIG  CH4 -> CH4(v24)
E + CH4 => E + CH4(v13)                   !  BOLSIG  CH4 -> CH4(v13)

# electronic excitation
# Phelps database, www.lxcat.net.
E + N2 => E + N2(A)                       !  BOLSIG N2 -> @R
   @R = N2(A1)   N2(A2)   N2(A3)
E + N2 => E + N2(B)                       !  BOLSIG N2 -> @R
   @R = N2(B3)   N2(W3)   N2(B'3)
E + N2 => E + N2(a')                      !  BOLSIG N2 -> @R
   @R = N2(au1)  N2(a'1)  N2(w1)
E + N2 => E + N2(C)                       !  BOLSIG N2 -> @R
   @R = N2(C3)   N2(E3)   N2(a''1) 
E + O2 => E + O2(a1)                      !  BOLSIG O2 -> O2(a1)
E + O2 => E + O2(b1)                      !  BOLSIG O2 -> O2(b1)
E + O2 => E + O2*                         !  BOLSIG O2 -> O2*  

# dissociation
# Phelps database, www.lxcat.net.
E + N2 => E + N + N                       !  BOLSIG N2 -> N + N
E + O2 => E + O + O                       !  BOLSIG O2 -> O + O
E + O2 => E + O + O(1D)                   !  BOLSIG O2 -> O + O(1D)
E + O2 => E + O + O(1S)                   !  BOLSIG O2 -> O + O(1S)
# R.K. Janev, D. Reiter, Phys. Plasmas. 9 (9) (2002) 4071-4081.
E + CH4 => E + CH3 + H                    !  BOLSIG CH4 -> CH3 + H
E + CH4 => E + CH2 + H2                   !  BOLSIG CH4 -> CH2 + H2
E + CH4 => E + CH + H2 + H                !  BOLSIG CH4 -> CH + H2 + H
E + CH4 => E + C + 2H2                    !  BOLSIG CH4 -> C + 2H2

# ionization
# Phelps database, www.lxcat.net.
E + N2 => E + E + N2^+                    !  BOLSIG N2 -> N2^+
E + O2 => E + E + O2^+                    !  BOLSIG O2 -> O2^+
# H.C. Straub, D.Lin, et al, J. Chem. Phys. 106 (11) (1997) 4430-4435.
E + CH4 => E + E + CH4^+                  !  BOLSIG CH4 -> CH4^+
E + CH4 => E + E + CH3^+ + H              !  BOLSIG CH4 -> CH3^+ + H
E + CH4 => E + E + CH2^+ + H2             !  BOLSIG CH4 -> CH2^+ + H2

#-----------------------------------------------------------------------
#
# relaxation of N2(v)
#
#-----------------------------------------------------------------------

# A. Starikovskiy, N. Aleksandrov, Prog. Energy Combust. Sci. 39 (1) (2013) 61-110.
@A + N2 => @B + N2                          !  kVT10_N2N2 * @R
    @A = N2(v1) N2(v2) N2(v3) N2(v4) N2(v5) N2(v6) N2(v7) N2(v8)
    @B = N2     N2(v1) N2(v2) N2(v3) N2(v4) N2(v5) N2(v6) N2(v7)
    @R = 1.0d0  2.0d0  3.0d0  4.0d0  5.0d0  6.0d0  7.0d0  8.0d0	

@A + O2 => @B + O2                          !  kVT10_N2O2 * @R
    @A = N2(v1) N2(v2) N2(v3) N2(v4) N2(v5) N2(v6) N2(v7) N2(v8)
    @B = N2     N2(v1) N2(v2) N2(v3) N2(v4) N2(v5) N2(v6) N2(v7)
    @R = 1.0d0  2.0d0  3.0d0  4.0d0  5.0d0  6.0d0  7.0d0  8.0d0	

@A + CO2 => @B + CO2                        !  kVT10_N2CO2 * @R
    @A = N2(v1) N2(v2) N2(v3) N2(v4) N2(v5) N2(v6) N2(v7) N2(v8)
    @B = N2     N2(v1) N2(v2) N2(v3) N2(v4) N2(v5) N2(v6) N2(v7)
    @R = 1.0d0  2.0d0  3.0d0  4.0d0  5.0d0  6.0d0  7.0d0  8.0d0	

@A + H2O => @B + H2O                        !  kVT10_N2H2O * @R
    @A = N2(v1) N2(v2) N2(v3) N2(v4) N2(v5) N2(v6) N2(v7) N2(v8)
    @B = N2     N2(v1) N2(v2) N2(v3) N2(v4) N2(v5) N2(v6) N2(v7)
    @R = 1.0d0  2.0d0  3.0d0  4.0d0  5.0d0  6.0d0  7.0d0  8.0d0	

@A + H2 => @B + H2                          !  kVT10_N2H2 * @R
    @A = N2(v1) N2(v2) N2(v3) N2(v4) N2(v5) N2(v6) N2(v7) N2(v8)
    @B = N2     N2(v1) N2(v2) N2(v3) N2(v4) N2(v5) N2(v6) N2(v7)
    @R = 1.0d0  2.0d0  3.0d0  4.0d0  5.0d0  6.0d0  7.0d0  8.0d0	

@A + OH => @B + OH                          !  kVT10_N2OH * @R
    @A = N2(v1) N2(v2) N2(v3) N2(v4) N2(v5) N2(v6) N2(v7) N2(v8)
    @B = N2     N2(v1) N2(v2) N2(v3) N2(v4) N2(v5) N2(v6) N2(v7)
    @R = 1.0d0  2.0d0  3.0d0  4.0d0  5.0d0  6.0d0  7.0d0  8.0d0	

@A + H => @B + H                            !  kVT10_N2H * @R
    @A = N2(v1) N2(v2) N2(v3) N2(v4) N2(v5) N2(v6) N2(v7) N2(v8)
    @B = N2     N2(v1) N2(v2) N2(v3) N2(v4) N2(v5) N2(v6) N2(v7)
    @R = 1.0d0  2.0d0  3.0d0  4.0d0  5.0d0  6.0d0  7.0d0  8.0d0	

@A + O => @B + O                            !  kVT10_N2O * @R
    @A = N2(v1) N2(v2) N2(v3) N2(v4) N2(v5) N2(v6) N2(v7) N2(v8)
    @B = N2     N2(v1) N2(v2) N2(v3) N2(v4) N2(v5) N2(v6) N2(v7)
    @R = 1.0d0  2.0d0  3.0d0  4.0d0  5.0d0  6.0d0  7.0d0  8.0d0

# A. Starikovskiy, N. Aleksandrov, Mechanism of Plasma-Assisted Ignition for H2 and C1-C5 Hydrocarbons, 55th AIAA Aerospace Sciences Meeting, 2017.
@A + CH4 => @B + CH4                        !  kVT10_N2CH4 * @R
    @A = N2(v1) N2(v2) N2(v3) N2(v4) N2(v5) N2(v6) N2(v7) N2(v8)
    @B = N2     N2(v1) N2(v2) N2(v3) N2(v4) N2(v5) N2(v6) N2(v7)
    @R = 1.0d0  2.0d0  3.0d0  4.0d0  5.0d0  6.0d0  7.0d0  8.0d0

@A + C2H2 => @B + C2H2                      !  kVT10_N2C2H2 * @R
    @A = N2(v1) N2(v2) N2(v3) N2(v4) N2(v5) N2(v6) N2(v7) N2(v8)
    @B = N2     N2(v1) N2(v2) N2(v3) N2(v4) N2(v5) N2(v6) N2(v7)
    @R = 1.0d0  2.0d0  3.0d0  4.0d0  5.0d0  6.0d0  7.0d0  8.0d0

@A + C2H4 => @B + C2H4                      !  kVT10_N2C2H4 * @R
    @A = N2(v1) N2(v2) N2(v3) N2(v4) N2(v5) N2(v6) N2(v7) N2(v8)
    @B = N2     N2(v1) N2(v2) N2(v3) N2(v4) N2(v5) N2(v6) N2(v7)
    @R = 1.0d0  2.0d0  3.0d0  4.0d0  5.0d0  6.0d0  7.0d0  8.0d0

@A + C2H6 => @B + C2H6                      !  kVT10_N2C2H6 * @R
    @A = N2(v1) N2(v2) N2(v3) N2(v4) N2(v5) N2(v6) N2(v7) N2(v8)
    @B = N2     N2(v1) N2(v2) N2(v3) N2(v4) N2(v5) N2(v6) N2(v7)
    @R = 1.0d0  2.0d0  3.0d0  4.0d0  5.0d0  6.0d0  7.0d0  8.0d0

@A + C3H8 => @B + C3H8                      !  kVT10_N2C3H8 * @R
    @A = N2(v1) N2(v2) N2(v3) N2(v4) N2(v5) N2(v6) N2(v7) N2(v8)
    @B = N2     N2(v1) N2(v2) N2(v3) N2(v4) N2(v5) N2(v6) N2(v7)
    @R = 1.0d0  2.0d0  3.0d0  4.0d0  5.0d0  6.0d0  7.0d0  8.0d0

# M.Capitelli. Plasma Kinetics in Atmospheric Gases. Springer.
@A + N => @B + N                            !  kVT10_N2N * @R
    @A = N2(v1) N2(v2) N2(v3) N2(v4) N2(v5) N2(v6) N2(v7) N2(v8)
    @B = N2     N2(v1) N2(v2) N2(v3) N2(v4) N2(v5) N2(v6) N2(v7)
    @R = 1.0d0  2.0d0  3.0d0  4.0d0  5.0d0  6.0d0  7.0d0  8.0d0

#-----------------------------------------------------------------------
#
# relaxation of O2(v)
#
#-----------------------------------------------------------------------

# A. Starikovskiy, N. Aleksandrov, Prog. Energy Combust. Sci. 39 (1) (2013) 61-110.
@A + N2 => @B + N2                        !  kVT10_O2N2 * @R
    @A = O2(v1) O2(v2) O2(v3) O2(v4)
    @B = O2     O2(v1) O2(v2) O2(v3)
    @R = 1.0d0  2.0d0  3.0d0  4.0d0

@A + O2 => @B + O2                        !  kVT10_O2O2 * @R
    @A = O2(v1) O2(v2) O2(v3) O2(v4)
    @B = O2     O2(v1) O2(v2) O2(v3)
    @R = 1.0d0  2.0d0  3.0d0  4.0d0

@A + CO2 => @B + CO2                      !  kVT10_O2CO2 * @R
    @A = O2(v1) O2(v2) O2(v3) O2(v4)
    @B = O2     O2(v1) O2(v2) O2(v3)
    @R = 1.0d0  2.0d0  3.0d0  4.0d0

@A + H2O => @B + H2O                      !  kVT10_O2H2O * @R
    @A = O2(v1) O2(v2) O2(v3) O2(v4)
    @B = O2     O2(v1) O2(v2) O2(v3)
    @R = 1.0d0  2.0d0  3.0d0  4.0d0

@A + H2 => @B + H2                        !  kVT10_O2H2 * @R
    @A = O2(v1) O2(v2) O2(v3) O2(v4)
    @B = O2     O2(v1) O2(v2) O2(v3)
    @R = 1.0d0  2.0d0  3.0d0  4.0d0

@A + CH4 => @B + CH4                      !  kVT10_O2CH4 * @R
    @A = O2(v1) O2(v2) O2(v3) O2(v4)
    @B = O2     O2(v1) O2(v2) O2(v3)
    @R = 1.0d0  2.0d0  3.0d0  4.0d0

@A + C2H2 => @B + C2H2                    !  kVT10_O2C2H2 * @R
    @A = O2(v1) O2(v2) O2(v3) O2(v4)
    @B = O2     O2(v1) O2(v2) O2(v3)
    @R = 1.0d0  2.0d0  3.0d0  4.0d0

@A + C2H4 => @B + C2H4                    !  kVT10_O2C2H4 * @R
    @A = O2(v1) O2(v2) O2(v3) O2(v4)
    @B = O2     O2(v1) O2(v2) O2(v3)
    @R = 1.0d0  2.0d0  3.0d0  4.0d0

@A + OH => @B + OH                        !  kVT10_O2OH * @R
    @A = O2(v1) O2(v2) O2(v3) O2(v4)
    @B = O2     O2(v1) O2(v2) O2(v3)
    @R = 1.0d0  2.0d0  3.0d0  4.0d0

@A + H => @B + H                          !  kVT10_O2H * @R
    @A = O2(v1) O2(v2) O2(v3) O2(v4)
    @B = O2     O2(v1) O2(v2) O2(v3)
    @R = 1.0d0  2.0d0  3.0d0  4.0d0

@A + O => @B + O                          !  kVT10_O2O * @R
    @A = O2(v1) O2(v2) O2(v3) O2(v4)
    @B = O2     O2(v1) O2(v2) O2(v3)
    @R = 1.0d0  2.0d0  3.0d0  4.0d0

# A. Starikovskiy, N. Aleksandrov, Mechanism of Plasma-Assisted Ignition for H2 and C1-C5 Hydrocarbons, 55th AIAA Aerospace Sciences Meeting, 2017.
@A + C2H6 => @B + C2H6                    !  kVT10_O2C2H6 * @R
    @A = O2(v1) O2(v2) O2(v3) O2(v4)
    @B = O2     O2(v1) O2(v2) O2(v3)
    @R = 1.0d0  2.0d0  3.0d0  4.0d0

@A + C3H8 => @B + C3H8                    !  kVT10_O2C3H8 * @R
    @A = O2(v1) O2(v2) O2(v3) O2(v4)
    @B = O2     O2(v1) O2(v2) O2(v3)
    @R = 1.0d0  2.0d0  3.0d0  4.0d0

#-----------------------------------------------------------------------
#
# relaxation of CH4(v)
#
#-----------------------------------------------------------------------

# A. Starikovskiy, N. Aleksandrov, Prog. Energy Combust. Sci. 39 (1) (2013) 61-110.
CH4(v24) + CH4 => CH4 + CH4      ! Tgas*exp(-30.65d0-40.0d0/Tgas**(1.0d0/3.0d0))
CH4(v13) + CH4 => CH4 + CH4      ! Tgas*exp(-30.65d0-40.0d0/Tgas**(1.0d0/3.0d0))
CH4(v24) + ANY_NEUTRAL => CH4 + ANY_NEUTRAL  ! Tgas*exp(-31.45d0-61.0d0/Tgas**(1.0d0/3.0d0))
CH4(v13) + ANY_NEUTRAL => CH4 + ANY_NEUTRAL  ! Tgas*exp(-31.45d0-61.0d0/Tgas**(1.0d0/3.0d0))

#-----------------------------------------------------------------------
#
# chemical reaction of N2(v)
#
#-----------------------------------------------------------------------

# calculated by theory in A. Fridman, Plasma chemistry, Cambridge University Press, New York, 2008.
HO2+N2(v1)=>H+O2+N2              !  2.951d-3/Tgas**1.720d0*exp(-21915.9d0/Tgas)
HO2+N2(v2)=>H+O2+N2              !  2.951d-3/Tgas**1.720d0*exp(-18621.9d0/Tgas)
HO2+N2(v3)=>H+O2+N2              !  2.951d-3/Tgas**1.720d0*exp(-15339.9d0/Tgas)
HO2+N2(v4)=>H+O2+N2              !  2.951d-3/Tgas**1.720d0*exp(-12058.0d0/Tgas)
HO2+N2(v5)=>H+O2+N2              !  2.951d-3/Tgas**1.720d0*exp(-8766.37d0/Tgas)
HO2+N2(v6)=>H+O2+N2              !  2.951d-3/Tgas**1.720d0*exp(-5479.58d0/Tgas)
HO2+N2(v7)=>H+O2+N2              !  2.951d-3/Tgas**1.720d0*exp(-2192.79d0/Tgas)
HO2+N2(v8)=>H+O2+N2              !  2.951d-3/Tgas**1.720d0

CH2(S)+N2(v1)=>CH2+N2            !  2.491d-11*exp(-104.11d0/Tgas)
CH2(S)+N2(v2)=>CH2+N2            !  2.491d-11
CH2(S)+N2(v3)=>CH2+N2            !  2.491d-11
CH2(S)+N2(v4)=>CH2+N2            !  2.491d-11
CH2(S)+N2(v5)=>CH2+N2            !  2.491d-11
CH2(S)+N2(v6)=>CH2+N2            !  2.491d-11
CH2(S)+N2(v7)=>CH2+N2            !  2.491d-11
CH2(S)+N2(v8)=>CH2+N2            !  2.491d-11

CH2+N2(v1)=>CH2(S)+N2            !  9.585d-12*Tgas**0.020d0*exp(-1459.46d0/Tgas)
CH2+N2(v2)=>CH2(S)+N2            !  9.585d-12*Tgas**0.020d0
CH2+N2(v3)=>CH2(S)+N2            !  9.585d-12*Tgas**0.020d0
CH2+N2(v4)=>CH2(S)+N2            !  9.585d-12*Tgas**0.020d0
CH2+N2(v5)=>CH2(S)+N2            !  9.585d-12*Tgas**0.020d0
CH2+N2(v6)=>CH2(S)+N2            !  9.585d-12*Tgas**0.020d0
CH2+N2(v7)=>CH2(S)+N2            !  9.585d-12*Tgas**0.020d0
CH2+N2(v8)=>CH2(S)+N2            !  9.585d-12*Tgas**0.020d0

N2(v1)+O=>N+NO                   !  9.028d-11*Tgas**0.10d0*exp(-34647.1d0/Tgas)
N2(v2)+O=>N+NO                   !  9.028d-11*Tgas**0.10d0*exp(-31305.0d0/Tgas)
N2(v3)+O=>N+NO                   !  9.028d-11*Tgas**0.10d0*exp(-27975.0d0/Tgas)
N2(v4)+O=>N+NO                   !  9.028d-11*Tgas**0.10d0*exp(-24632.9d0/Tgas)
N2(v5)+O=>N+NO                   !  9.028d-11*Tgas**0.10d0*exp(-21290.8d0/Tgas)
N2(v6)+O=>N+NO                   !  9.028d-11*Tgas**0.10d0*exp(-17948.7d0/Tgas)
N2(v7)+O=>N+NO                   !  9.028d-11*Tgas**0.10d0*exp(-14606.6d0/Tgas)
N2(v8)+O=>N+NO                   !  9.028d-11*Tgas**0.10d0*exp(-11271.7d0/Tgas)

N2(v1)+O2=>N2O+O                 !  3.085d-16*Tgas**1.01d0*exp(-41764.1d0/Tgas)
N2(v2)+O2=>N2O+O                 !  3.085d-16*Tgas**1.01d0*exp(-38758.6d0/Tgas)
N2(v3)+O2=>N2O+O                 !  3.085d-16*Tgas**1.01d0*exp(-35741.1d0/Tgas)
N2(v4)+O2=>N2O+O                 !  3.085d-16*Tgas**1.01d0*exp(-32723.6d0/Tgas)
N2(v5)+O2=>N2O+O                 !  3.085d-16*Tgas**1.01d0*exp(-29706.1d0/Tgas)
N2(v6)+O2=>N2O+O                 !  3.085d-16*Tgas**1.01d0*exp(-26700.6d0/Tgas)
N2(v7)+O2=>N2O+O                 !  3.085d-16*Tgas**1.01d0*exp(-23683.1d0/Tgas)
N2(v8)+O2=>N2O+O                 !  3.085d-16*Tgas**1.01d0*exp(-20665.6d0/Tgas)

N2(v1)+OH=>N2O+H                 !  2.24d-16*Tgas**1.41d0*exp(-37412.1d0/Tgas)
N2(v2)+OH=>N2O+H                 !  2.24d-16*Tgas**1.41d0*exp(-34671.2d0/Tgas)
N2(v3)+OH=>N2O+H                 !  2.24d-16*Tgas**1.41d0*exp(-31930.2d0/Tgas)
N2(v4)+OH=>N2O+H                 !  2.24d-16*Tgas**1.41d0*exp(-29177.1d0/Tgas)
N2(v5)+OH=>N2O+H                 !  2.24d-16*Tgas**1.41d0*exp(-26436.2d0/Tgas)
N2(v6)+OH=>N2O+H                 !  2.24d-16*Tgas**1.41d0*exp(-23695.2d0/Tgas)
N2(v7)+OH=>N2O+H                 !  2.24d-16*Tgas**1.41d0*exp(-20942.1d0/Tgas)
N2(v8)+OH=>N2O+H                 !  2.24d-16*Tgas**1.41d0*exp(-18201.2d0/Tgas)

N2(v1)+HO2=>N2O+OH               !  1.221d-14*Tgas**0.56d0*exp(-21254.7d0/Tgas)
N2(v2)+HO2=>N2O+OH               !  1.221d-14*Tgas**0.56d0*exp(-18946.5d0/Tgas)
N2(v3)+HO2=>N2O+OH               !  1.221d-14*Tgas**0.56d0*exp(-16626.3d0/Tgas)
N2(v4)+HO2=>N2O+OH               !  1.221d-14*Tgas**0.56d0*exp(-14306.1d0/Tgas)
N2(v5)+HO2=>N2O+OH               !  1.221d-14*Tgas**0.56d0*exp(-11995.4d0/Tgas)
N2(v6)+HO2=>N2O+OH               !  1.221d-14*Tgas**0.56d0*exp(-9678.8d0/Tgas)
N2(v7)+HO2=>N2O+OH               !  1.221d-14*Tgas**0.56d0*exp(-7362.2d0/Tgas)
N2(v8)+HO2=>N2O+OH               !  1.221d-14*Tgas**0.56d0*exp(-5046.8d0/Tgas)

N2(v1)+H=>NH+N                   !  1.406d-9/Tgas**0.09d0*exp(-70183.8d0/Tgas)
N2(v2)+H=>NH+N                   !  1.406d-9/Tgas**0.09d0*exp(-66829.7d0/Tgas)
N2(v3)+H=>NH+N                   !  1.406d-9/Tgas**0.09d0*exp(-63475.6d0/Tgas)
N2(v4)+H=>NH+N                   !  1.406d-9/Tgas**0.09d0*exp(-60121.5d0/Tgas)
N2(v5)+H=>NH+N                   !  1.406d-9/Tgas**0.09d0*exp(-56767.4d0/Tgas)
N2(v6)+H=>NH+N                   !  1.406d-9/Tgas**0.09d0*exp(-53425.3d0/Tgas)
N2(v7)+H=>NH+N                   !  1.406d-9/Tgas**0.09d0*exp(-50071.2d0/Tgas)
N2(v8)+H=>NH+N                   !  1.406d-9/Tgas**0.09d0*exp(-46717.1d0/Tgas)

N2(v1)+OH=>NH+NO                 !  6.274d-11/Tgas**0.03d0*exp(-45683.2d0/Tgas)
N2(v2)+OH=>NH+NO                 !  6.274d-11/Tgas**0.03d0*exp(-42329.1d0/Tgas)
N2(v3)+OH=>NH+NO                 !  6.274d-11/Tgas**0.03d0*exp(-38963.0d0/Tgas)
N2(v4)+OH=>NH+NO                 !  6.274d-11/Tgas**0.03d0*exp(-35608.9d0/Tgas)
N2(v5)+OH=>NH+NO                 !  6.274d-11/Tgas**0.03d0*exp(-32242.7d0/Tgas)
N2(v6)+OH=>NH+NO                 !  6.274d-11/Tgas**0.03d0*exp(-28888.6d0/Tgas)
N2(v7)+OH=>NH+NO                 !  6.274d-11/Tgas**0.03d0*exp(-25534.5d0/Tgas)
N2(v8)+OH=>NH+NO                 !  6.274d-11/Tgas**0.03d0*exp(-22168.4d0/Tgas)

N2(v1)+H=>NNH                    !  8.535d-18*Tgas**0.64d0
N2(v2)+H=>NNH                    !  8.535d-18*Tgas**0.64d0
N2(v3)+H=>NNH                    !  8.535d-18*Tgas**0.64d0
N2(v4)+H=>NNH                    !  8.535d-18*Tgas**0.64d0
N2(v5)+H=>NNH                    !  8.535d-18*Tgas**0.64d0
N2(v6)+H=>NNH                    !  8.535d-18*Tgas**0.64d0
N2(v7)+H=>NNH                    !  8.535d-18*Tgas**0.64d0
N2(v8)+H=>NNH                    !  8.535d-18*Tgas**0.64d0

N2(v1)+H+ANY_NEUTRAL=>NNH+ANY_NEUTRAL !  5.584d-36*Tgas**0.53d0*exp(-3316.8d0/Tgas)
N2(v2)+H+ANY_NEUTRAL=>NNH+ANY_NEUTRAL !  5.584d-36*Tgas**0.53d0*exp(-828.5d0/Tgas)
N2(v3)+H+ANY_NEUTRAL=>NNH+ANY_NEUTRAL !  5.584d-36*Tgas**0.53d0
N2(v4)+H+ANY_NEUTRAL=>NNH+ANY_NEUTRAL !  5.584d-36*Tgas**0.53d0
N2(v5)+H+ANY_NEUTRAL=>NNH+ANY_NEUTRAL !  5.584d-36*Tgas**0.53d0
N2(v6)+H+ANY_NEUTRAL=>NNH+ANY_NEUTRAL !  5.584d-36*Tgas**0.53d0
N2(v7)+H+ANY_NEUTRAL=>NNH+ANY_NEUTRAL !  5.584d-36*Tgas**0.53d0
N2(v8)+H+ANY_NEUTRAL=>NNH+ANY_NEUTRAL !  5.584d-36*Tgas**0.53d0

HO2+N2(v1)=>NNH+O2              !  8.839d-12*Tgas**0.16d0*exp(-25149.8d0/Tgas)
HO2+N2(v2)=>NNH+O2              !  8.839d-12*Tgas**0.16d0*exp(-21795.7d0/Tgas)
HO2+N2(v3)=>NNH+O2              !  8.839d-12*Tgas**0.16d0*exp(-18453.6d0/Tgas)
HO2+N2(v4)=>NNH+O2              !  8.839d-12*Tgas**0.16d0*exp(-15099.5d0/Tgas)
HO2+N2(v5)=>NNH+O2              !  8.839d-12*Tgas**0.16d0*exp(-11746.6d0/Tgas)
HO2+N2(v6)=>NNH+O2              !  8.839d-12*Tgas**0.16d0*exp(-8396.1d0/Tgas)
HO2+N2(v7)=>NNH+O2              !  8.839d-12*Tgas**0.16d0*exp(-5045.6d0/Tgas)
HO2+N2(v8)=>NNH+O2              !  8.839d-12*Tgas**0.16d0*exp(-1693.9d0/Tgas)

OH+N2(v1)=>NNH+O                !  1.596d-12*Tgas**0.61d0*exp(-51489.8d0/Tgas)
OH+N2(v2)=>NNH+O                !  1.596d-12*Tgas**0.61d0*exp(-48111.6d0/Tgas)
OH+N2(v3)=>NNH+O                !  1.596d-12*Tgas**0.61d0*exp(-44733.5d0/Tgas)
OH+N2(v4)=>NNH+O                !  1.596d-12*Tgas**0.61d0*exp(-41367.4d0/Tgas)
OH+N2(v5)=>NNH+O                !  1.596d-12*Tgas**0.61d0*exp(-37989.2d0/Tgas)
OH+N2(v6)=>NNH+O                !  1.596d-12*Tgas**0.61d0*exp(-34611.0d0/Tgas)
OH+N2(v7)=>NNH+O                !  1.596d-12*Tgas**0.61d0*exp(-31244.9d0/Tgas)
OH+N2(v8)=>NNH+O                !  1.596d-12*Tgas**0.61d0*exp(-27866.9d0/Tgas)

H2+N2(v1)=>NNH+H                !  4.254d-12*Tgas**0.67d0*exp(-52403.5d0/Tgas)
H2+N2(v2)=>NNH+H                !  4.254d-12*Tgas**0.67d0*exp(-49025.3d0/Tgas)
H2+N2(v3)=>NNH+H                !  4.254d-12*Tgas**0.67d0*exp(-45647.1d0/Tgas)
H2+N2(v4)=>NNH+H                !  4.254d-12*Tgas**0.67d0*exp(-42269.0d0/Tgas)
H2+N2(v5)=>NNH+H                !  4.254d-12*Tgas**0.67d0*exp(-38890.8d0/Tgas)
H2+N2(v6)=>NNH+H                !  4.254d-12*Tgas**0.67d0*exp(-35512.7d0/Tgas)
H2+N2(v7)=>NNH+H                !  4.254d-12*Tgas**0.67d0*exp(-32134.5d0/Tgas)
H2+N2(v8)=>NNH+H                !  4.254d-12*Tgas**0.67d0*exp(-28756.4d0/Tgas)

H2O+N2(v1)=>NNH+OH              !  1.607d-10*Tgas**0.3d0*exp(-60554.3d0/Tgas)
H2O+N2(v2)=>NNH+OH              !  1.607d-10*Tgas**0.3d0*exp(-57200.2d0/Tgas)
H2O+N2(v3)=>NNH+OH              !  1.607d-10*Tgas**0.3d0*exp(-53858.1d0/Tgas)
H2O+N2(v4)=>NNH+OH              !  1.607d-10*Tgas**0.3d0*exp(-50504.0d0/Tgas)
H2O+N2(v5)=>NNH+OH              !  1.607d-10*Tgas**0.3d0*exp(-47161.9d0/Tgas)
H2O+N2(v6)=>NNH+OH              !  1.607d-10*Tgas**0.3d0*exp(-43819.8d0/Tgas)
H2O+N2(v7)=>NNH+OH              !  1.607d-10*Tgas**0.3d0*exp(-40465.7d0/Tgas)
H2O+N2(v8)=>NNH+OH              !  1.607d-10*Tgas**0.3d0*exp(-37123.6d0/Tgas)

CH4+N2(v1)=>NNH+CH3             !  5.402d-6/Tgas**0.73d0*exp(-54699.6d0/Tgas)
CH4+N2(v2)=>NNH+CH3             !  5.402d-6/Tgas**0.73d0*exp(-51429.7d0/Tgas)
CH4+N2(v3)=>NNH+CH3             !  5.402d-6/Tgas**0.73d0*exp(-48147.7d0/Tgas)
CH4+N2(v4)=>NNH+CH3             !  5.402d-6/Tgas**0.73d0*exp(-44877.7d0/Tgas)
CH4+N2(v5)=>NNH+CH3             !  5.402d-6/Tgas**0.73d0*exp(-41595.8d0/Tgas)
CH4+N2(v6)=>NNH+CH3             !  5.402d-6/Tgas**0.73d0*exp(-38325.8d0/Tgas)
CH4+N2(v7)=>NNH+CH3             !  5.402d-6/Tgas**0.73d0*exp(-35043.8d0/Tgas)
CH4+N2(v8)=>NNH+CH3             !  5.402d-6/Tgas**0.73d0*exp(-31773.9d0/Tgas)

N2(v1)+CO=>NCO+N                !  9.214d-15*Tgas**1.14d0*exp(-82241.8d0/Tgas)
N2(v2)+CO=>NCO+N                !  9.214d-15*Tgas**1.14d0*exp(-78875.7d0/Tgas)
N2(v3)+CO=>NCO+N                !  9.214d-15*Tgas**1.14d0*exp(-75509.5d0/Tgas)
N2(v4)+CO=>NCO+N                !  9.214d-15*Tgas**1.14d0*exp(-72143.4d0/Tgas)
N2(v5)+CO=>NCO+N                !  9.214d-15*Tgas**1.14d0*exp(-68777.3d0/Tgas)
N2(v6)+CO=>NCO+N                !  9.214d-15*Tgas**1.14d0*exp(-65411.1d0/Tgas)
N2(v7)+CO=>NCO+N                !  9.214d-15*Tgas**1.14d0*exp(-62045.0d0/Tgas)
N2(v8)+CO=>NCO+N                !  9.214d-15*Tgas**1.14d0*exp(-58678.9d0/Tgas)

N2(v1)+CO2=>NCO+NO              !  3.03d-4/Tgas**1.85d0*exp(-71350.0d0/Tgas)
N2(v2)+CO2=>NCO+NO              !  3.03d-4/Tgas**1.85d0*exp(-68019.9d0/Tgas)
N2(v3)+CO2=>NCO+NO              !  3.03d-4/Tgas**1.85d0*exp(-64689.8d0/Tgas)
N2(v4)+CO2=>NCO+NO              !  3.03d-4/Tgas**1.85d0*exp(-61359.8d0/Tgas)
N2(v5)+CO2=>NCO+NO              !  3.03d-4/Tgas**1.85d0*exp(-58041.7d0/Tgas)
N2(v6)+CO2=>NCO+NO              !  3.03d-4/Tgas**1.85d0*exp(-54711.7d0/Tgas)
N2(v7)+CO2=>NCO+NO              !  3.03d-4/Tgas**1.85d0*exp(-51381.6d0/Tgas)
N2(v8)+CO2=>NCO+NO              !  3.03d-4/Tgas**1.85d0*exp(-48051.5d0/Tgas)

N2(v1)+CH2=>H2CN+N              !  1.936d-14*Tgas**0.99d0*exp(-35488.6d0/Tgas)
N2(v2)+CH2=>H2CN+N              !  1.936d-14*Tgas**0.99d0*exp(-32098.5d0/Tgas)
N2(v3)+CH2=>H2CN+N              !  1.936d-14*Tgas**0.99d0*exp(-28696.3d0/Tgas)
N2(v4)+CH2=>H2CN+N              !  1.936d-14*Tgas**0.99d0*exp(-25306.1d0/Tgas)
N2(v5)+CH2=>H2CN+N              !  1.936d-14*Tgas**0.99d0*exp(-21903.9d0/Tgas)
N2(v6)+CH2=>H2CN+N              !  1.936d-14*Tgas**0.99d0*exp(-18513.7d0/Tgas)
N2(v7)+CH2=>H2CN+N              !  1.936d-14*Tgas**0.99d0*exp(-15111.5d0/Tgas)
N2(v8)+CH2=>H2CN+N              !  1.936d-14*Tgas**0.99d0*exp(-11715.3d0/Tgas)

C+N2(v1)=>CN+N                  !  1.046d-10*exp(-19752.0d0/Tgas)
C+N2(v2)=>CN+N                  !  1.046d-10*exp(-16361.8d0/Tgas)
C+N2(v3)=>CN+N                  !  1.046d-10*exp(-12971.6d0/Tgas)
C+N2(v4)=>CN+N                  !  1.046d-10*exp(-9586.3d0/Tgas)
C+N2(v5)=>CN+N                  !  1.046d-10*exp(-6196.1d0/Tgas)
C+N2(v6)=>CN+N                  !  1.046d-10*exp(-2807.1d0/Tgas)
C+N2(v7)=>CN+N                  !  1.046d-10
C+N2(v8)=>CN+N                  !  1.046d-10

CH+N2(v1)=>HCN+N                !  5.181d-15*Tgas**0.88*exp(-8385.3d0/Tgas)
CH+N2(v2)=>HCN+N                !  5.181d-15*Tgas**0.88*exp(-6645.7d0/Tgas)
CH+N2(v3)=>HCN+N                !  5.181d-15*Tgas**0.88*exp(-4906.1d0/Tgas)
CH+N2(v4)=>HCN+N                !  5.181d-15*Tgas**0.88*exp(-3166.6d0/Tgas)
CH+N2(v5)=>HCN+N                !  5.181d-15*Tgas**0.88*exp(-1425.8d0/Tgas)
CH+N2(v6)=>HCN+N                !  5.181d-15*Tgas**0.88
CH+N2(v7)=>HCN+N                !  5.181d-15*Tgas**0.88
CH+N2(v8)=>HCN+N                !  5.181d-15*Tgas**0.88

CH2+N2(v1)=>HCN+NH              !  1.661d-11*exp(-35236.2d0/Tgas)
CH2+N2(v2)=>HCN+NH              !  1.661d-11*exp(-33252.6d0/Tgas)
CH2+N2(v3)=>HCN+NH              !  1.661d-11*exp(-31281.0d0/Tgas)
CH2+N2(v4)=>HCN+NH              !  1.661d-11*exp(-29297.4d0/Tgas)
CH2+N2(v5)=>HCN+NH              !  1.661d-11*exp(-27313.8d0/Tgas)
CH2+N2(v6)=>HCN+NH              !  1.661d-11*exp(-25330.1d0/Tgas)
CH2+N2(v7)=>HCN+NH              !  1.661d-11*exp(-23346.5d0/Tgas)
CH2+N2(v8)=>HCN+NH              !  1.661d-11*exp(-21362.9d0/Tgas)

CH2(S)+N2(v1)=>NH+HCN           !  1.661d-13*exp(-30812.1d0/Tgas)
CH2(S)+N2(v2)=>NH+HCN           !  1.661d-13*exp(-28936.7d0/Tgas)
CH2(S)+N2(v3)=>NH+HCN           !  1.661d-13*exp(-27061.3d0/Tgas)
CH2(S)+N2(v4)=>NH+HCN           !  1.661d-13*exp(-25185.9d0/Tgas)
CH2(S)+N2(v5)=>NH+HCN           !  1.661d-13*exp(-23310.5d0/Tgas)
CH2(S)+N2(v6)=>NH+HCN           !  1.661d-13*exp(-21435.0d0/Tgas)
CH2(S)+N2(v7)=>NH+HCN           !  1.661d-13*exp(-19559.6d0/Tgas)
CH2(S)+N2(v8)=>NH+HCN           !  1.661d-13*exp(-17684.2d0/Tgas)

CO+H+N2(v1)=>HCNN+O             !  1.597d-40*Tgas**1.78d0*exp(-68548.9d0/Tgas)
CO+H+N2(v2)=>HCNN+O             !  1.597d-40*Tgas**1.78d0*exp(-65158.7d0/Tgas)
CO+H+N2(v3)=>HCNN+O             !  1.597d-40*Tgas**1.78d0*exp(-61780.5d0/Tgas)
CO+H+N2(v4)=>HCNN+O             !  1.597d-40*Tgas**1.78d0*exp(-58390.4d0/Tgas)
CO+H+N2(v5)=>HCNN+O             !  1.597d-40*Tgas**1.78d0*exp(-55012.2d0/Tgas)
CO+H+N2(v6)=>HCNN+O             !  1.597d-40*Tgas**1.78d0*exp(-51634.1d0/Tgas)
CO+H+N2(v7)=>HCNN+O             !  1.597d-40*Tgas**1.78d0*exp(-48243.9d0/Tgas)
CO+H+N2(v8)=>HCNN+O             !  1.597d-40*Tgas**1.78d0*exp(-44865.7d0/Tgas)

O+HCO+N2(v1)=>HCNN+O2           !  1.467d-41*Tgas**1.57*exp(-16686.4d0/Tgas)
O+HCO+N2(v2)=>HCNN+O2           !  1.467d-41*Tgas**1.57*exp(-13260.2d0/Tgas)
O+HCO+N2(v3)=>HCNN+O2           !  1.467d-41*Tgas**1.57*exp(-9830.3d0/Tgas)
O+HCO+N2(v4)=>HCNN+O2           !  1.467d-41*Tgas**1.57*exp(-6402.9d0/Tgas)
O+HCO+N2(v5)=>HCNN+O2           !  1.467d-41*Tgas**1.57*exp(-2975.4d0/Tgas)
O+HCO+N2(v6)=>HCNN+O2           !  1.467d-41*Tgas**1.57
O+HCO+N2(v7)=>HCNN+O2           !  1.467d-41*Tgas**1.57
O+HCO+N2(v8)=>HCNN+O2           !  1.467d-41*Tgas**1.57

H+HCO+N2(v1)=>HCNN+OH           !  5.586d-39*Tgas**1.16d0*exp(-25414.3d0/Tgas)
H+HCO+N2(v2)=>HCNN+OH           !  5.586d-39*Tgas**1.16d0*exp(-22036.1d0/Tgas)
H+HCO+N2(v3)=>HCNN+OH           !  5.586d-39*Tgas**1.16d0*exp(-18646.0d0/Tgas)
H+HCO+N2(v4)=>HCNN+OH           !  5.586d-39*Tgas**1.16d0*exp(-15267.8d0/Tgas)
H+HCO+N2(v5)=>HCNN+OH           !  5.586d-39*Tgas**1.16d0*exp(-11889.7d0/Tgas)
H+HCO+N2(v6)=>HCNN+OH           !  5.586d-39*Tgas**1.16d0*exp(-8509.1d0/Tgas)